
 OpenBabel09032608483D

 33 36  0  0  0  0  0  0  0  0999 V2000
  -48.1990   -5.0790  -21.2050 C   0  0  0  0  0  0  0  0  0  0  0  0
  -47.4240   -5.8630  -22.0520 C   0  0  0  0  0  0  0  0  0  0  0  0
  -47.0680   -5.3260  -23.2960 C   0  0  0  0  0  3  0  0  0  0  0  0
  -47.4170   -4.0030  -23.6750 C   0  0  0  0  0  0  0  0  0  0  0  0
  -48.1140   -3.2020  -22.7650 C   0  0  0  0  0  0  0  0  0  0  0  0
  -48.4990   -3.7540  -21.5510 C   0  0  0  0  0  3  0  0  0  0  0  0
  -48.4300   -1.9310  -23.0110 N   0  0  0  0  0  0  0  0  0  0  0  0
  -48.0530   -1.4370  -24.1950 C   0  0  0  0  0  3  0  0  0  0  0  0
  -47.4020   -2.1040  -25.1500 N   0  0  0  0  0  0  0  0  0  0  0  0
  -47.1050   -3.3920  -24.9060 C   0  0  0  0  0  0  0  0  0  0  0  0
  -46.4700   -4.1530  -25.9160 N   0  0  0  0  0  0  0  0  0  0  0  0
  -46.8800   -5.0740  -26.0110 H   0  0  0  0  0  0  0  0  0  0  0  0
  -45.7490   -3.7320  -27.0510 C   0  0  0  0  0  0  0  0  0  0  0  0
  -45.9350   -4.4150  -28.2660 C   0  0  0  0  0  3  0  0  0  0  0  0
  -45.2270   -4.0420  -29.4120 C   0  0  0  0  0  0  0  0  0  0  0  0
  -44.3150   -2.9950  -29.3540 C   0  0  0  0  0  0  0  0  0  0  0  0
  -44.1000   -2.3180  -28.1600 C   0  0  0  0  0  3  0  0  0  0  0  0
  -44.8120   -2.6910  -27.0150 C   0  0  0  0  0  3  0  0  0  0  0  0
  -43.6220   -2.6240  -30.4400 F   0  0  0  0  0  0  0  0  0  0  0  0
  -45.4950   -4.8960  -30.8820 Cl  0  0  0  0  0  0  0  0  0  0  0  0
  -47.5140   -5.8900  -19.1640 C   0  0  0  0  0  1  0  0  0  0  0  0
  -48.6340   -5.5340  -19.9880 O   0  0  0  0  0  0  0  0  0  0  0  0
  -46.9450   -7.1240  -21.8710 O   0  0  0  0  0  0  0  0  0  0  0  0
  -45.6130   -7.5030  -22.1880 C   0  0  0  0  0  2  0  0  0  0  0  0
  -44.6850   -7.3330  -20.9820 C   0  0  0  0  0  2  0  0  0  0  0  0
  -43.1930   -7.4300  -21.2980 C   0  0  0  0  0  2  0  0  0  0  0  0
  -42.4890   -6.1000  -21.0980 N   0  0  0  0  0  4  0  0  0  0  0  0
  -43.4620   -4.9310  -21.2850 C   0  0  0  0  0  2  0  0  0  0  0  0
  -42.7140   -3.6050  -21.1090 C   0  0  0  0  0  2  0  0  0  0  0  0
  -42.0830   -3.5360  -19.8270 O   0  0  0  0  0  0  0  0  0  0  0  0
  -41.1300   -4.5880  -19.6440 C   0  0  0  0  0  2  0  0  0  0  0  0
  -41.8030   -5.9610  -19.7410 C   0  0  0  0  0  2  0  0  0  0  0  0
  -41.7700   -6.0090  -21.8280 H   0  0  0  0  0  0  0  0  0  0  0  0
  1 22  1  0  0  0  0
  2 23  1  0  0  0  0
  2  1  2  0  0  0  0
  3  2  1  0  0  0  0
  4  3  2  0  0  0  0
  4  5  1  0  0  0  0
  5  6  2  0  0  0  0
  6  1  1  0  0  0  0
  7  5  1  0  0  0  0
  8  7  2  0  0  0  0
  9 10  2  0  0  0  0
  9  8  1  0  0  0  0
 10  4  1  0  0  0  0
 11 10  1  0  0  0  0
 12 11  1  0  0  0  0
 13 18  1  0  0  0  0
 13 11  1  0  0  0  0
 14 13  2  0  0  0  0
 15 16  2  0  0  0  0
 15 14  1  0  0  0  0
 16 17  1  0  0  0  0
 17 18  2  0  0  0  0
 19 16  1  0  0  0  0
 20 15  1  0  0  0  0
 22 21  1  0  0  0  0
 24 23  1  0  0  0  0
 24 25  1  0  0  0  0
 26 27  1  0  0  0  0
 26 25  1  0  0  0  0
 27 32  1  0  0  0  0
 28 29  1  0  0  0  0
 28 27  1  0  0  0  0
 29 30  1  0  0  0  0
 30 31  1  0  0  0  0
 32 31  1  0  0  0  0
 33 27  1  0  0  0  0
M  END
>  <minimizedAffinity>
-6.51668978

$$$$
