
 OpenBabel09032608483D

 33 36  0  0  0  0  0  0  0  0999 V2000
  -45.2470   -6.9080  -22.0990 C   0  0  0  0  0  0  0  0  0  0  0  0
  -44.4180   -5.8790  -22.5370 C   0  0  0  0  0  0  0  0  0  0  0  0
  -44.5410   -5.4650  -23.8690 C   0  0  0  0  0  3  0  0  0  0  0  0
  -45.5140   -6.0140  -24.7440 C   0  0  0  0  0  0  0  0  0  0  0  0
  -46.3980   -6.9790  -24.2510 C   0  0  0  0  0  0  0  0  0  0  0  0
  -46.2450   -7.4140  -22.9430 C   0  0  0  0  0  3  0  0  0  0  0  0
  -47.3810   -7.5030  -24.9830 N   0  0  0  0  0  0  0  0  0  0  0  0
  -47.4900   -7.0680  -26.2420 C   0  0  0  0  0  3  0  0  0  0  0  0
  -46.6990   -6.1680  -26.8310 N   0  0  0  0  0  0  0  0  0  0  0  0
  -45.6960   -5.6580  -26.0960 C   0  0  0  0  0  0  0  0  0  0  0  0
  -44.7980   -4.7470  -26.7010 N   0  0  0  0  0  0  0  0  0  0  0  0
  -43.8350   -4.9480  -26.4580 H   0  0  0  0  0  0  0  0  0  0  0  0
  -44.9400   -3.9710  -27.8680 C   0  0  0  0  0  0  0  0  0  0  0  0
  -44.3770   -2.6840  -27.9010 C   0  0  0  0  0  3  0  0  0  0  0  0
  -44.5090   -1.8730  -29.0320 C   0  0  0  0  0  0  0  0  0  0  0  0
  -45.2190   -2.3330  -30.1360 C   0  0  0  0  0  0  0  0  0  0  0  0
  -45.8010   -3.5940  -30.1190 C   0  0  0  0  0  3  0  0  0  0  0  0
  -45.6640   -4.4050  -28.9870 C   0  0  0  0  0  3  0  0  0  0  0  0
  -45.3620   -1.5700  -31.2290 F   0  0  0  0  0  0  0  0  0  0  0  0
  -43.7920   -0.3090  -29.0360 Cl  0  0  0  0  0  0  0  0  0  0  0  0
  -46.4590   -7.3620  -20.1980 C   0  0  0  0  0  1  0  0  0  0  0  0
  -45.1700   -7.4110  -20.8270 O   0  0  0  0  0  0  0  0  0  0  0  0
  -43.4610   -5.1890  -21.8600 O   0  0  0  0  0  0  0  0  0  0  0  0
  -43.4190   -3.7700  -21.8020 C   0  0  0  0  0  2  0  0  0  0  0  0
  -43.9420   -3.1460  -23.0990 C   0  0  0  0  0  2  0  0  0  0  0  0
  -44.4710   -1.7190  -22.9600 C   0  0  0  0  0  2  0  0  0  0  0  0
  -45.9790   -1.6610  -23.1270 N   0  0  0  0  0  4  0  0  0  0  0  0
  -46.4000   -2.2000  -24.4990 C   0  0  0  0  0  2  0  0  0  0  0  0
  -47.9220   -2.0980  -24.6470 C   0  0  0  0  0  2  0  0  0  0  0  0
  -48.5910   -2.8060  -23.5990 O   0  0  0  0  0  0  0  0  0  0  0  0
  -48.2560   -2.2880  -22.3080 C   0  0  0  0  0  2  0  0  0  0  0  0
  -46.7510   -2.4090  -22.0430 C   0  0  0  0  0  2  0  0  0  0  0  0
  -46.2630   -0.6730  -23.0960 H   0  0  0  0  0  0  0  0  0  0  0  0
  1 22  1  0  0  0  0
  2  1  1  0  0  0  0
  2 23  1  0  0  0  0
  3  2  2  0  0  0  0
  4  5  1  0  0  0  0
  4  3  1  0  0  0  0
  5  6  1  0  0  0  0
  6  1  2  0  0  0  0
  7  5  2  0  0  0  0
  8  7  1  0  0  0  0
  9  8  2  0  0  0  0
  9 10  1  0  0  0  0
 10  4  2  0  0  0  0
 11 12  1  0  0  0  0
 11 10  1  0  0  0  0
 13 11  1  0  0  0  0
 14 13  1  0  0  0  0
 15 14  2  0  0  0  0
 16 17  2  0  0  0  0
 16 15  1  0  0  0  0
 17 18  1  0  0  0  0
 18 13  2  0  0  0  0
 19 16  1  0  0  0  0
 20 15  1  0  0  0  0
 22 21  1  0  0  0  0
 23 24  1  0  0  0  0
 25 26  1  0  0  0  0
 25 24  1  0  0  0  0
 27 33  1  0  0  0  0
 27 26  1  0  0  0  0
 27 32  1  0  0  0  0
 28 27  1  0  0  0  0
 29 28  1  0  0  0  0
 29 30  1  0  0  0  0
 30 31  1  0  0  0  0
 31 32  1  0  0  0  0
M  END
>  <minimizedAffinity>
-4.73549318

$$$$
