
 OpenBabel09032608483D

 33 36  0  0  0  0  0  0  0  0999 V2000
  -43.7790   -4.2680  -21.7600 C   0  0  0  0  0  0  0  0  0  0  0  0
  -44.2770   -5.5160  -22.1190 C   0  0  0  0  0  0  0  0  0  0  0  0
  -44.8290   -5.6550  -23.3990 C   0  0  0  0  0  3  0  0  0  0  0  0
  -44.8320   -4.5910  -24.3390 C   0  0  0  0  0  0  0  0  0  0  0  0
  -44.2380   -3.3760  -23.9860 C   0  0  0  0  0  0  0  0  0  0  0  0
  -43.7290   -3.2320  -22.7030 C   0  0  0  0  0  3  0  0  0  0  0  0
  -44.1400   -2.3450  -24.8250 N   0  0  0  0  0  0  0  0  0  0  0  0
  -44.6520   -2.5160  -26.0480 C   0  0  0  0  0  3  0  0  0  0  0  0
  -45.2570   -3.6180  -26.4960 N   0  0  0  0  0  0  0  0  0  0  0  0
  -45.3730   -4.6470  -25.6400 C   0  0  0  0  0  0  0  0  0  0  0  0
  -46.0620   -5.8110  -26.0560 N   0  0  0  0  0  0  0  0  0  0  0  0
  -46.6890   -6.1560  -25.3390 H   0  0  0  0  0  0  0  0  0  0  0  0
  -46.3750   -6.2670  -27.3510 C   0  0  0  0  0  0  0  0  0  0  0  0
  -45.4780   -6.0010  -28.4000 C   0  0  0  0  0  3  0  0  0  0  0  0
  -45.7570   -6.4200  -29.7040 C   0  0  0  0  0  0  0  0  0  0  0  0
  -46.9420   -7.0950  -29.9770 C   0  0  0  0  0  0  0  0  0  0  0  0
  -47.8520   -7.3520  -28.9600 C   0  0  0  0  0  3  0  0  0  0  0  0
  -47.5690   -6.9340  -27.6560 C   0  0  0  0  0  3  0  0  0  0  0  0
  -47.2320   -7.5020  -31.2220 F   0  0  0  0  0  0  0  0  0  0  0  0
  -44.6250   -6.0870  -30.9570 Cl  0  0  0  0  0  0  0  0  0  0  0  0
  -41.8560   -4.3210  -20.4980 C   0  0  0  0  0  1  0  0  0  0  0  0
  -43.2600   -4.0240  -20.5150 O   0  0  0  0  0  0  0  0  0  0  0  0
  -44.3300   -6.6690  -21.3990 O   0  0  0  0  0  0  0  0  0  0  0  0
  -45.5300   -7.4010  -21.1890 C   0  0  0  0  0  2  0  0  0  0  0  0
  -46.5600   -6.5690  -20.4200 C   0  0  0  0  0  2  0  0  0  0  0  0
  -47.8910   -6.3650  -21.1410 C   0  0  0  0  0  2  0  0  0  0  0  0
  -47.9490   -5.0200  -21.8430 N   0  0  0  0  0  4  0  0  0  0  0  0
  -49.3960   -4.5310  -21.9740 C   0  0  0  0  0  2  0  0  0  0  0  0
  -49.4220   -3.1890  -22.7140 C   0  0  0  0  0  2  0  0  0  0  0  0
  -48.6190   -2.2140  -22.0420 O   0  0  0  0  0  0  0  0  0  0  0  0
  -47.2500   -2.6220  -21.9510 C   0  0  0  0  0  2  0  0  0  0  0  0
  -47.1190   -3.9320  -21.1660 C   0  0  0  0  0  2  0  0  0  0  0  0
  -47.5900   -5.1450  -22.7990 H   0  0  0  0  0  0  0  0  0  0  0  0
  1 22  1  0  0  0  0
  2  1  1  0  0  0  0
  2 23  1  0  0  0  0
  3  2  2  0  0  0  0
  4  5  1  0  0  0  0
  4  3  1  0  0  0  0
  5  6  1  0  0  0  0
  6  1  2  0  0  0  0
  7  5  2  0  0  0  0
  8  7  1  0  0  0  0
  9  8  2  0  0  0  0
  9 10  1  0  0  0  0
 10  4  2  0  0  0  0
 11 10  1  0  0  0  0
 11 12  1  0  0  0  0
 13 11  1  0  0  0  0
 14 13  2  0  0  0  0
 15 14  1  0  0  0  0
 16 15  2  0  0  0  0
 16 17  1  0  0  0  0
 17 18  2  0  0  0  0
 18 13  1  0  0  0  0
 19 16  1  0  0  0  0
 20 15  1  0  0  0  0
 22 21  1  0  0  0  0
 23 24  1  0  0  0  0
 24 25  1  0  0  0  0
 26 25  1  0  0  0  0
 27 32  1  0  0  0  0
 27 26  1  0  0  0  0
 28 27  1  0  0  0  0
 29 30  1  0  0  0  0
 29 28  1  0  0  0  0
 30 31  1  0  0  0  0
 31 32  1  0  0  0  0
 33 27  1  0  0  0  0
M  END
>  <minimizedAffinity>
-6.61671352

$$$$
