
 OpenBabel09032608483D

 33 36  0  0  0  0  0  0  0  0999 V2000
  -44.0210   -3.9090  -21.5030 C   0  0  0  0  0  0  0  0  0  0  0  0
  -44.9880   -3.3430  -22.3290 C   0  0  0  0  0  0  0  0  0  0  0  0
  -45.2370   -3.9600  -23.5610 C   0  0  0  0  0  3  0  0  0  0  0  0
  -44.5870   -5.1600  -23.9490 C   0  0  0  0  0  0  0  0  0  0  0  0
  -43.6900   -5.7610  -23.0600 C   0  0  0  0  0  0  0  0  0  0  0  0
  -43.4180   -5.1230  -21.8580 C   0  0  0  0  0  3  0  0  0  0  0  0
  -43.0820   -6.9190  -23.3140 N   0  0  0  0  0  0  0  0  0  0  0  0
  -43.3610   -7.4990  -24.4870 C   0  0  0  0  0  3  0  0  0  0  0  0
  -44.1810   -7.0170  -25.4230 N   0  0  0  0  0  0  0  0  0  0  0  0
  -44.7760   -5.8380  -25.1710 C   0  0  0  0  0  0  0  0  0  0  0  0
  -45.6050   -5.2630  -26.1630 N   0  0  0  0  0  0  0  0  0  0  0  0
  -45.4340   -4.2700  -26.2690 H   0  0  0  0  0  0  0  0  0  0  0  0
  -46.2330   -5.8540  -27.2760 C   0  0  0  0  0  0  0  0  0  0  0  0
  -46.0060   -5.3120  -28.5520 C   0  0  0  0  0  3  0  0  0  0  0  0
  -46.6230   -5.8560  -29.6820 C   0  0  0  0  0  0  0  0  0  0  0  0
  -47.4850   -6.9390  -29.5470 C   0  0  0  0  0  0  0  0  0  0  0  0
  -47.7400   -7.4790  -28.2940 C   0  0  0  0  0  3  0  0  0  0  0  0
  -47.1190   -6.9350  -27.1650 C   0  0  0  0  0  3  0  0  0  0  0  0
  -48.0910   -7.4730  -30.6170 F   0  0  0  0  0  0  0  0  0  0  0  0
  -46.3070   -5.1690  -31.2280 Cl  0  0  0  0  0  0  0  0  0  0  0  0
  -42.2480   -3.2890  -20.1760 C   0  0  0  0  0  1  0  0  0  0  0  0
  -43.6770   -3.3520  -20.3000 O   0  0  0  0  0  0  0  0  0  0  0  0
  -45.7540   -2.2350  -22.1330 O   0  0  0  0  0  0  0  0  0  0  0  0
  -46.9170   -1.9500  -22.8980 C   0  0  0  0  0  2  0  0  0  0  0  0
  -48.1750   -1.9750  -22.0250 C   0  0  0  0  0  2  0  0  0  0  0  0
  -48.9660   -3.2810  -22.0730 C   0  0  0  0  0  2  0  0  0  0  0  0
  -48.1460   -4.4540  -21.5660 N   0  0  0  0  0  4  0  0  0  0  0  0
  -48.6440   -4.9200  -20.1930 C   0  0  0  0  0  2  0  0  0  0  0  0
  -47.7760   -6.0810  -19.6970 C   0  0  0  0  0  2  0  0  0  0  0  0
  -47.7830   -7.1650  -20.6310 O   0  0  0  0  0  0  0  0  0  0  0  0
  -47.2730   -6.7710  -21.9090 C   0  0  0  0  0  2  0  0  0  0  0  0
  -48.1230   -5.6490  -22.5160 C   0  0  0  0  0  2  0  0  0  0  0  0
  -47.1780   -4.1310  -21.4370 H   0  0  0  0  0  0  0  0  0  0  0  0
  1 22  1  0  0  0  0
  2 23  1  0  0  0  0
  2  1  2  0  0  0  0
  3  2  1  0  0  0  0
  4  3  2  0  0  0  0
  4  5  1  0  0  0  0
  5  6  2  0  0  0  0
  6  1  1  0  0  0  0
  7  5  1  0  0  0  0
  8  7  2  0  0  0  0
  9 10  2  0  0  0  0
  9  8  1  0  0  0  0
 10  4  1  0  0  0  0
 11 10  1  0  0  0  0
 12 11  1  0  0  0  0
 13 18  1  0  0  0  0
 13 11  1  0  0  0  0
 14 13  2  0  0  0  0
 15 16  2  0  0  0  0
 15 14  1  0  0  0  0
 16 17  1  0  0  0  0
 17 18  2  0  0  0  0
 19 16  1  0  0  0  0
 20 15  1  0  0  0  0
 22 21  1  0  0  0  0
 24 23  1  0  0  0  0
 24 25  1  0  0  0  0
 26 25  1  0  0  0  0
 26 27  1  0  0  0  0
 27 33  1  0  0  0  0
 27 28  1  0  0  0  0
 28 29  1  0  0  0  0
 30 29  1  0  0  0  0
 31 30  1  0  0  0  0
 32 31  1  0  0  0  0
 32 27  1  0  0  0  0
M  END
>  <minimizedAffinity>
-4.74682045

$$$$
