
 OpenBabel09032608483D

 33 36  0  0  0  0  0  0  0  0999 V2000
  -43.7790   -4.2680  -21.7600 C   0  0  0  0  0  0  0  0  0  0  0  0
  -44.2770   -5.5160  -22.1190 C   0  0  0  0  0  0  0  0  0  0  0  0
  -44.8290   -5.6550  -23.3990 C   0  0  0  0  0  3  0  0  0  0  0  0
  -44.8320   -4.5910  -24.3390 C   0  0  0  0  0  0  0  0  0  0  0  0
  -44.2380   -3.3760  -23.9860 C   0  0  0  0  0  0  0  0  0  0  0  0
  -43.7290   -3.2320  -22.7030 C   0  0  0  0  0  3  0  0  0  0  0  0
  -44.1400   -2.3450  -24.8250 N   0  0  0  0  0  0  0  0  0  0  0  0
  -44.6520   -2.5160  -26.0480 C   0  0  0  0  0  3  0  0  0  0  0  0
  -45.2570   -3.6180  -26.4960 N   0  0  0  0  0  0  0  0  0  0  0  0
  -45.3730   -4.6470  -25.6400 C   0  0  0  0  0  0  0  0  0  0  0  0
  -46.0620   -5.8110  -26.0560 N   0  0  0  0  0  0  0  0  0  0  0  0
  -46.6890   -6.1560  -25.3390 H   0  0  0  0  0  0  0  0  0  0  0  0
  -46.3750   -6.2670  -27.3510 C   0  0  0  0  0  0  0  0  0  0  0  0
  -45.4780   -6.0010  -28.4000 C   0  0  0  0  0  3  0  0  0  0  0  0
  -45.7570   -6.4200  -29.7040 C   0  0  0  0  0  0  0  0  0  0  0  0
  -46.9420   -7.0950  -29.9770 C   0  0  0  0  0  0  0  0  0  0  0  0
  -47.8520   -7.3520  -28.9600 C   0  0  0  0  0  3  0  0  0  0  0  0
  -47.5690   -6.9340  -27.6560 C   0  0  0  0  0  3  0  0  0  0  0  0
  -47.2320   -7.5020  -31.2220 F   0  0  0  0  0  0  0  0  0  0  0  0
  -44.6250   -6.0870  -30.9570 Cl  0  0  0  0  0  0  0  0  0  0  0  0
  -41.8560   -4.3210  -20.4980 C   0  0  0  0  0  1  0  0  0  0  0  0
  -43.2600   -4.0240  -20.5150 O   0  0  0  0  0  0  0  0  0  0  0  0
  -44.3300   -6.6690  -21.3990 O   0  0  0  0  0  0  0  0  0  0  0  0
  -45.5300   -7.4010  -21.1890 C   0  0  0  0  0  2  0  0  0  0  0  0
  -46.5600   -6.5690  -20.4200 C   0  0  0  0  0  2  0  0  0  0  0  0
  -47.8910   -6.3650  -21.1410 C   0  0  0  0  0  2  0  0  0  0  0  0
  -47.9490   -5.0200  -21.8430 N   0  0  0  0  0  4  0  0  0  0  0  0
  -49.3960   -4.5310  -21.9740 C   0  0  0  0  0  2  0  0  0  0  0  0
  -49.4220   -3.1890  -22.7140 C   0  0  0  0  0  2  0  0  0  0  0  0
  -48.6190   -2.2140  -22.0420 O   0  0  0  0  0  0  0  0  0  0  0  0
  -47.2500   -2.6220  -21.9510 C   0  0  0  0  0  2  0  0  0  0  0  0
  -47.1190   -3.9320  -21.1660 C   0  0  0  0  0  2  0  0  0  0  0  0
  -47.5900   -5.1450  -22.7990 H   0  0  0  0  0  0  0  0  0  0  0  0
  1 22  1  0  0  0  0
  2  1  1  0  0  0  0
  2 23  1  0  0  0  0
  3  2  2  0  0  0  0
  4  5  1  0  0  0  0
  4  3  1  0  0  0  0
  5  6  1  0  0  0  0
  6  1  2  0  0  0  0
  7  5  2  0  0  0  0
  8  7  1  0  0  0  0
  9  8  2  0  0  0  0
  9 10  1  0  0  0  0
 10  4  2  0  0  0  0
 11 10  1  0  0  0  0
 11 12  1  0  0  0  0
 13 11  1  0  0  0  0
 14 13  2  0  0  0  0
 15 14  1  0  0  0  0
 16 15  2  0  0  0  0
 16 17  1  0  0  0  0
 17 18  2  0  0  0  0
 18 13  1  0  0  0  0
 19 16  1  0  0  0  0
 20 15  1  0  0  0  0
 22 21  1  0  0  0  0
 23 24  1  0  0  0  0
 24 25  1  0  0  0  0
 26 25  1  0  0  0  0
 27 32  1  0  0  0  0
 27 26  1  0  0  0  0
 28 27  1  0  0  0  0
 29 30  1  0  0  0  0
 29 28  1  0  0  0  0
 30 31  1  0  0  0  0
 31 32  1  0  0  0  0
 33 27  1  0  0  0  0
M  END
>  <minimizedAffinity>
-6.61671352

$$$$

 OpenBabel09032608483D

 33 36  0  0  0  0  0  0  0  0999 V2000
  -48.1990   -5.0790  -21.2050 C   0  0  0  0  0  0  0  0  0  0  0  0
  -47.4240   -5.8630  -22.0520 C   0  0  0  0  0  0  0  0  0  0  0  0
  -47.0680   -5.3260  -23.2960 C   0  0  0  0  0  3  0  0  0  0  0  0
  -47.4170   -4.0030  -23.6750 C   0  0  0  0  0  0  0  0  0  0  0  0
  -48.1140   -3.2020  -22.7650 C   0  0  0  0  0  0  0  0  0  0  0  0
  -48.4990   -3.7540  -21.5510 C   0  0  0  0  0  3  0  0  0  0  0  0
  -48.4300   -1.9310  -23.0110 N   0  0  0  0  0  0  0  0  0  0  0  0
  -48.0530   -1.4370  -24.1950 C   0  0  0  0  0  3  0  0  0  0  0  0
  -47.4020   -2.1040  -25.1500 N   0  0  0  0  0  0  0  0  0  0  0  0
  -47.1050   -3.3920  -24.9060 C   0  0  0  0  0  0  0  0  0  0  0  0
  -46.4700   -4.1530  -25.9160 N   0  0  0  0  0  0  0  0  0  0  0  0
  -46.8800   -5.0740  -26.0110 H   0  0  0  0  0  0  0  0  0  0  0  0
  -45.7490   -3.7320  -27.0510 C   0  0  0  0  0  0  0  0  0  0  0  0
  -45.9350   -4.4150  -28.2660 C   0  0  0  0  0  3  0  0  0  0  0  0
  -45.2270   -4.0420  -29.4120 C   0  0  0  0  0  0  0  0  0  0  0  0
  -44.3150   -2.9950  -29.3540 C   0  0  0  0  0  0  0  0  0  0  0  0
  -44.1000   -2.3180  -28.1600 C   0  0  0  0  0  3  0  0  0  0  0  0
  -44.8120   -2.6910  -27.0150 C   0  0  0  0  0  3  0  0  0  0  0  0
  -43.6220   -2.6240  -30.4400 F   0  0  0  0  0  0  0  0  0  0  0  0
  -45.4950   -4.8960  -30.8820 Cl  0  0  0  0  0  0  0  0  0  0  0  0
  -47.5140   -5.8900  -19.1640 C   0  0  0  0  0  1  0  0  0  0  0  0
  -48.6340   -5.5340  -19.9880 O   0  0  0  0  0  0  0  0  0  0  0  0
  -46.9450   -7.1240  -21.8710 O   0  0  0  0  0  0  0  0  0  0  0  0
  -45.6130   -7.5030  -22.1880 C   0  0  0  0  0  2  0  0  0  0  0  0
  -44.6850   -7.3330  -20.9820 C   0  0  0  0  0  2  0  0  0  0  0  0
  -43.1930   -7.4300  -21.2980 C   0  0  0  0  0  2  0  0  0  0  0  0
  -42.4890   -6.1000  -21.0980 N   0  0  0  0  0  4  0  0  0  0  0  0
  -43.4620   -4.9310  -21.2850 C   0  0  0  0  0  2  0  0  0  0  0  0
  -42.7140   -3.6050  -21.1090 C   0  0  0  0  0  2  0  0  0  0  0  0
  -42.0830   -3.5360  -19.8270 O   0  0  0  0  0  0  0  0  0  0  0  0
  -41.1300   -4.5880  -19.6440 C   0  0  0  0  0  2  0  0  0  0  0  0
  -41.8030   -5.9610  -19.7410 C   0  0  0  0  0  2  0  0  0  0  0  0
  -41.7700   -6.0090  -21.8280 H   0  0  0  0  0  0  0  0  0  0  0  0
  1 22  1  0  0  0  0
  2 23  1  0  0  0  0
  2  1  2  0  0  0  0
  3  2  1  0  0  0  0
  4  3  2  0  0  0  0
  4  5  1  0  0  0  0
  5  6  2  0  0  0  0
  6  1  1  0  0  0  0
  7  5  1  0  0  0  0
  8  7  2  0  0  0  0
  9 10  2  0  0  0  0
  9  8  1  0  0  0  0
 10  4  1  0  0  0  0
 11 10  1  0  0  0  0
 12 11  1  0  0  0  0
 13 18  1  0  0  0  0
 13 11  1  0  0  0  0
 14 13  2  0  0  0  0
 15 16  2  0  0  0  0
 15 14  1  0  0  0  0
 16 17  1  0  0  0  0
 17 18  2  0  0  0  0
 19 16  1  0  0  0  0
 20 15  1  0  0  0  0
 22 21  1  0  0  0  0
 24 23  1  0  0  0  0
 24 25  1  0  0  0  0
 26 27  1  0  0  0  0
 26 25  1  0  0  0  0
 27 32  1  0  0  0  0
 28 29  1  0  0  0  0
 28 27  1  0  0  0  0
 29 30  1  0  0  0  0
 30 31  1  0  0  0  0
 32 31  1  0  0  0  0
 33 27  1  0  0  0  0
M  END
>  <minimizedAffinity>
-6.51668978

$$$$

 OpenBabel09032608483D

 33 36  0  0  0  0  0  0  0  0999 V2000
  -44.0210   -3.9090  -21.5030 C   0  0  0  0  0  0  0  0  0  0  0  0
  -44.9880   -3.3430  -22.3290 C   0  0  0  0  0  0  0  0  0  0  0  0
  -45.2370   -3.9600  -23.5610 C   0  0  0  0  0  3  0  0  0  0  0  0
  -44.5870   -5.1600  -23.9490 C   0  0  0  0  0  0  0  0  0  0  0  0
  -43.6900   -5.7610  -23.0600 C   0  0  0  0  0  0  0  0  0  0  0  0
  -43.4180   -5.1230  -21.8580 C   0  0  0  0  0  3  0  0  0  0  0  0
  -43.0820   -6.9190  -23.3140 N   0  0  0  0  0  0  0  0  0  0  0  0
  -43.3610   -7.4990  -24.4870 C   0  0  0  0  0  3  0  0  0  0  0  0
  -44.1810   -7.0170  -25.4230 N   0  0  0  0  0  0  0  0  0  0  0  0
  -44.7760   -5.8380  -25.1710 C   0  0  0  0  0  0  0  0  0  0  0  0
  -45.6050   -5.2630  -26.1630 N   0  0  0  0  0  0  0  0  0  0  0  0
  -45.4340   -4.2700  -26.2690 H   0  0  0  0  0  0  0  0  0  0  0  0
  -46.2330   -5.8540  -27.2760 C   0  0  0  0  0  0  0  0  0  0  0  0
  -46.0060   -5.3120  -28.5520 C   0  0  0  0  0  3  0  0  0  0  0  0
  -46.6230   -5.8560  -29.6820 C   0  0  0  0  0  0  0  0  0  0  0  0
  -47.4850   -6.9390  -29.5470 C   0  0  0  0  0  0  0  0  0  0  0  0
  -47.7400   -7.4790  -28.2940 C   0  0  0  0  0  3  0  0  0  0  0  0
  -47.1190   -6.9350  -27.1650 C   0  0  0  0  0  3  0  0  0  0  0  0
  -48.0910   -7.4730  -30.6170 F   0  0  0  0  0  0  0  0  0  0  0  0
  -46.3070   -5.1690  -31.2280 Cl  0  0  0  0  0  0  0  0  0  0  0  0
  -42.2480   -3.2890  -20.1760 C   0  0  0  0  0  1  0  0  0  0  0  0
  -43.6770   -3.3520  -20.3000 O   0  0  0  0  0  0  0  0  0  0  0  0
  -45.7540   -2.2350  -22.1330 O   0  0  0  0  0  0  0  0  0  0  0  0
  -46.9170   -1.9500  -22.8980 C   0  0  0  0  0  2  0  0  0  0  0  0
  -48.1750   -1.9750  -22.0250 C   0  0  0  0  0  2  0  0  0  0  0  0
  -48.9660   -3.2810  -22.0730 C   0  0  0  0  0  2  0  0  0  0  0  0
  -48.1460   -4.4540  -21.5660 N   0  0  0  0  0  4  0  0  0  0  0  0
  -48.6440   -4.9200  -20.1930 C   0  0  0  0  0  2  0  0  0  0  0  0
  -47.7760   -6.0810  -19.6970 C   0  0  0  0  0  2  0  0  0  0  0  0
  -47.7830   -7.1650  -20.6310 O   0  0  0  0  0  0  0  0  0  0  0  0
  -47.2730   -6.7710  -21.9090 C   0  0  0  0  0  2  0  0  0  0  0  0
  -48.1230   -5.6490  -22.5160 C   0  0  0  0  0  2  0  0  0  0  0  0
  -47.1780   -4.1310  -21.4370 H   0  0  0  0  0  0  0  0  0  0  0  0
  1 22  1  0  0  0  0
  2 23  1  0  0  0  0
  2  1  2  0  0  0  0
  3  2  1  0  0  0  0
  4  3  2  0  0  0  0
  4  5  1  0  0  0  0
  5  6  2  0  0  0  0
  6  1  1  0  0  0  0
  7  5  1  0  0  0  0
  8  7  2  0  0  0  0
  9 10  2  0  0  0  0
  9  8  1  0  0  0  0
 10  4  1  0  0  0  0
 11 10  1  0  0  0  0
 12 11  1  0  0  0  0
 13 18  1  0  0  0  0
 13 11  1  0  0  0  0
 14 13  2  0  0  0  0
 15 16  2  0  0  0  0
 15 14  1  0  0  0  0
 16 17  1  0  0  0  0
 17 18  2  0  0  0  0
 19 16  1  0  0  0  0
 20 15  1  0  0  0  0
 22 21  1  0  0  0  0
 24 23  1  0  0  0  0
 24 25  1  0  0  0  0
 26 25  1  0  0  0  0
 26 27  1  0  0  0  0
 27 33  1  0  0  0  0
 27 28  1  0  0  0  0
 28 29  1  0  0  0  0
 30 29  1  0  0  0  0
 31 30  1  0  0  0  0
 32 31  1  0  0  0  0
 32 27  1  0  0  0  0
M  END
>  <minimizedAffinity>
-4.74682045

$$$$

 OpenBabel09032608483D

 33 36  0  0  0  0  0  0  0  0999 V2000
  -45.2470   -6.9080  -22.0990 C   0  0  0  0  0  0  0  0  0  0  0  0
  -44.4180   -5.8790  -22.5370 C   0  0  0  0  0  0  0  0  0  0  0  0
  -44.5410   -5.4650  -23.8690 C   0  0  0  0  0  3  0  0  0  0  0  0
  -45.5140   -6.0140  -24.7440 C   0  0  0  0  0  0  0  0  0  0  0  0
  -46.3980   -6.9790  -24.2510 C   0  0  0  0  0  0  0  0  0  0  0  0
  -46.2450   -7.4140  -22.9430 C   0  0  0  0  0  3  0  0  0  0  0  0
  -47.3810   -7.5030  -24.9830 N   0  0  0  0  0  0  0  0  0  0  0  0
  -47.4900   -7.0680  -26.2420 C   0  0  0  0  0  3  0  0  0  0  0  0
  -46.6990   -6.1680  -26.8310 N   0  0  0  0  0  0  0  0  0  0  0  0
  -45.6960   -5.6580  -26.0960 C   0  0  0  0  0  0  0  0  0  0  0  0
  -44.7980   -4.7470  -26.7010 N   0  0  0  0  0  0  0  0  0  0  0  0
  -43.8350   -4.9480  -26.4580 H   0  0  0  0  0  0  0  0  0  0  0  0
  -44.9400   -3.9710  -27.8680 C   0  0  0  0  0  0  0  0  0  0  0  0
  -44.3770   -2.6840  -27.9010 C   0  0  0  0  0  3  0  0  0  0  0  0
  -44.5090   -1.8730  -29.0320 C   0  0  0  0  0  0  0  0  0  0  0  0
  -45.2190   -2.3330  -30.1360 C   0  0  0  0  0  0  0  0  0  0  0  0
  -45.8010   -3.5940  -30.1190 C   0  0  0  0  0  3  0  0  0  0  0  0
  -45.6640   -4.4050  -28.9870 C   0  0  0  0  0  3  0  0  0  0  0  0
  -45.3620   -1.5700  -31.2290 F   0  0  0  0  0  0  0  0  0  0  0  0
  -43.7920   -0.3090  -29.0360 Cl  0  0  0  0  0  0  0  0  0  0  0  0
  -46.4590   -7.3620  -20.1980 C   0  0  0  0  0  1  0  0  0  0  0  0
  -45.1700   -7.4110  -20.8270 O   0  0  0  0  0  0  0  0  0  0  0  0
  -43.4610   -5.1890  -21.8600 O   0  0  0  0  0  0  0  0  0  0  0  0
  -43.4190   -3.7700  -21.8020 C   0  0  0  0  0  2  0  0  0  0  0  0
  -43.9420   -3.1460  -23.0990 C   0  0  0  0  0  2  0  0  0  0  0  0
  -44.4710   -1.7190  -22.9600 C   0  0  0  0  0  2  0  0  0  0  0  0
  -45.9790   -1.6610  -23.1270 N   0  0  0  0  0  4  0  0  0  0  0  0
  -46.4000   -2.2000  -24.4990 C   0  0  0  0  0  2  0  0  0  0  0  0
  -47.9220   -2.0980  -24.6470 C   0  0  0  0  0  2  0  0  0  0  0  0
  -48.5910   -2.8060  -23.5990 O   0  0  0  0  0  0  0  0  0  0  0  0
  -48.2560   -2.2880  -22.3080 C   0  0  0  0  0  2  0  0  0  0  0  0
  -46.7510   -2.4090  -22.0430 C   0  0  0  0  0  2  0  0  0  0  0  0
  -46.2630   -0.6730  -23.0960 H   0  0  0  0  0  0  0  0  0  0  0  0
  1 22  1  0  0  0  0
  2  1  1  0  0  0  0
  2 23  1  0  0  0  0
  3  2  2  0  0  0  0
  4  5  1  0  0  0  0
  4  3  1  0  0  0  0
  5  6  1  0  0  0  0
  6  1  2  0  0  0  0
  7  5  2  0  0  0  0
  8  7  1  0  0  0  0
  9  8  2  0  0  0  0
  9 10  1  0  0  0  0
 10  4  2  0  0  0  0
 11 12  1  0  0  0  0
 11 10  1  0  0  0  0
 13 11  1  0  0  0  0
 14 13  1  0  0  0  0
 15 14  2  0  0  0  0
 16 17  2  0  0  0  0
 16 15  1  0  0  0  0
 17 18  1  0  0  0  0
 18 13  2  0  0  0  0
 19 16  1  0  0  0  0
 20 15  1  0  0  0  0
 22 21  1  0  0  0  0
 23 24  1  0  0  0  0
 25 26  1  0  0  0  0
 25 24  1  0  0  0  0
 27 33  1  0  0  0  0
 27 26  1  0  0  0  0
 27 32  1  0  0  0  0
 28 27  1  0  0  0  0
 29 28  1  0  0  0  0
 29 30  1  0  0  0  0
 30 31  1  0  0  0  0
 31 32  1  0  0  0  0
M  END
>  <minimizedAffinity>
-4.73549318

$$$$
