03P
  CCTOOLS-0919241027

 63 66  0  0  0  0  0  0  0  0999 V2000
    1.4400   -3.6000    0.3280 N   0  0  0  0  0
    4.1310    1.5910   -1.2080 N   0  0  0  0  0
    5.4180   -2.8680   -1.6940 C   0  0  0  0  0
    5.2640   -4.0920   -1.1550 C   0  0  0  0  0
    4.1020   -0.7430   -1.9360 C   0  0  0  0  0
    4.3220    0.2100   -0.7600 C   0  0  0  0  0
    4.2750    2.6090   -0.3360 C   0  0  0  0  0
    0.2200   -1.1280    0.0660 C   0  0  0  0  0
   -2.2320   -0.5900    1.2360 C   0  0  0  0  0
   -0.7030   -0.3240   -0.5910 C   0  0  0  0  0
   -4.4000    1.8380    1.5930 C   0  0  0  0  0
   -5.8720    0.9440   -0.5750 C   0  0  0  0  0
   -5.0170    0.0780    0.0790 C   0  0  0  0  0
   -6.6820    0.4580   -1.7490 C   0  0  0  0  0
    5.9000    4.7340    0.7610 C   0  0  0  0  0
   -7.9090   -0.0380   -1.2950 F   0  0  0  0  0
   -6.9070    1.5200   -2.6320 F   0  0  0  0  0
   -5.9840   -0.5580   -2.4100 F   0  0  0  0  0
   -5.9840    2.2560   -0.1540 C   0  0  0  0  0
   -5.2530    2.7010    0.9320 C   0  0  0  0  0
   -4.2780    0.5230    1.1660 C   0  0  0  0  0
   -3.4360   -0.3260    1.8100 O   0  0  0  0  0
   -1.3140   -1.4000    1.8900 C   0  0  0  0  0
   -1.7000   -2.0690    3.4450 CL  0  0  0  0  0
   -0.0900   -1.6680    1.3070 C   0  0  0  0  0
   -1.9250   -0.0560   -0.0070 C   0  0  0  0  0
    1.4590   -1.4000   -0.5260 N   0  0  0  0  0
    2.0700   -2.6270   -0.3220 C   0  0  0  0  0
    2.0110   -4.7740    0.5300 C   0  0  0  0  0
    3.3650   -2.8670   -0.7960 C   0  0  0  0  0
    3.9330   -4.1310   -0.5580 C   0  0  0  0  0
    3.2240   -5.0490    0.1050 N   0  0  0  0  0
    4.2930   -2.1250   -1.4870 N   0  0  0  0  0
    4.5630    2.3810    0.8200 O   0  0  0  0  0
    4.0780    4.0300   -0.7980 C   0  0  0  0  0
    4.4530    4.9900    0.3330 C   0  0  0  0  0
    3.5820    4.7780    1.4470 O   0  0  0  0  0
    4.3130    6.4330   -0.1550 C   0  0  0  0  0
    3.9000    1.7740   -2.1320 H   0  0  0  0  0
    6.3010   -2.5250   -2.2120 H   0  0  0  0  0
    5.9880   -4.8930   -1.1640 H   0  0  0  0  0
    3.0880   -0.6220   -2.3170 H   0  0  0  0  0
    4.8170   -0.5160   -2.7270 H   0  0  0  0  0
    5.3360    0.0890   -0.3790 H   0  0  0  0  0
    3.6070   -0.0180    0.0310 H   0  0  0  0  0
   -0.4640    0.0930   -1.5580 H   0  0  0  0  0
   -3.8260    2.1870    2.4380 H   0  0  0  0  0
   -4.9300   -0.9470   -0.2500 H   0  0  0  0  0
    6.5630    4.8960   -0.0880 H   0  0  0  0  0
    6.1670    5.4180    1.5670 H   0  0  0  0  0
    5.9990    3.7060    1.1090 H   0  0  0  0  0
   -6.6520    2.9320   -0.6670 H   0  0  0  0  0
   -5.3480    3.7240    1.2650 H   0  0  0  0  0
    0.6240   -2.2980    1.8160 H   0  0  0  0  0
   -2.6400    0.5740   -0.5150 H   0  0  0  0  0
    1.8890   -0.7290   -1.0790 H   0  0  0  0  0
    1.4610   -5.5350    1.0640 H   0  0  0  0  0
    4.7130    4.2220   -1.6630 H   0  0  0  0  0
    3.0340    4.1820   -1.0720 H   0  0  0  0  0
    3.6190    3.8820    1.8090 H   0  0  0  0  0
    4.9120    6.5710   -1.0560 H   0  0  0  0  0
    3.2670    6.6410   -0.3790 H   0  0  0  0  0
    4.6620    7.1150    0.6210 H   0  0  0  0  0
  1 29  2  0  0  0
  1 28  1  0  0  0
  2  6  1  0  0  0
  2 39  1  0  0  0
  3 40  1  0  0  0
  4  3  2  0  0  0
  4 41  1  0  0  0
  5 33  1  0  0  0
  5 42  1  0  0  0
  5 43  1  0  0  0
  6  5  1  0  0  0
  6 44  1  0  0  0
  6 45  1  0  0  0
  7  2  1  0  0  0
  8 27  1  0  0  0
  9 23  2  0  0  0
  9 26  1  0  0  0
 10  8  1  0  0  0
 10 46  1  0  0  0
 11 21  1  0  0  0
 11 47  1  0  0  0
 12 14  1  0  0  0
 12 13  1  0  0  0
 13 48  1  0  0  0
 14 16  1  0  0  0
 14 18  1  0  0  0
 15 49  1  0  0  0
 15 50  1  0  0  0
 15 51  1  0  0  0
 17 14  1  0  0  0
 19 12  2  0  0  0
 19 52  1  0  0  0
 20 11  2  0  0  0
 20 19  1  0  0  0
 20 53  1  0  0  0
 21 13  2  0  0  0
 21 22  1  0  0  0
 22  9  1  0  0  0
 23 25  1  0  0  0
 24 23  1  0  0  0
 25  8  2  0  0  0
 25 54  1  0  0  0
 26 10  2  0  0  0
 26 55  1  0  0  0
 27 28  1  0  0  0
 27 56  1  0  0  0
 28 30  2  0  0  0
 29 32  1  0  0  0
 29 57  1  0  0  0
 30 31  1  0  0  0
 30 33  1  0  0  0
 31  4  1  0  0  0
 32 31  2  0  0  0
 33  3  1  0  0  0
 34  7  2  0  0  0
 35  7  1  0  0  0
 35 58  1  0  0  0
 35 59  1  0  0  0
 36 15  1  0  0  0
 36 35  1  0  0  0
 36 37  1  0  0  0
 37 60  1  0  0  0
 38 36  1  0  0  0
 38 61  1  0  0  0
 38 62  1  0  0  0
 38 63  1  0  0  0
M  END
$$$$
